6
	Energy:      -0.5839957
C         -9.27096        2.49229       -0.00000
C         -8.07306        2.56361        0.00000
H        -10.33390        2.42901       -0.00000
C         -6.54371        2.65467        0.00000
C         -5.34581        2.72600        0.00000
H         -4.28287        2.78929        0.00000
