8
	Energy:      -0.5228700
C         -9.36984        2.44792       -0.00242
C         -8.16770        2.53523       -0.00190
H        -10.42540        2.37126       -0.00287
C         -6.75963        2.63750       -0.00129
C         -5.55751        2.72480       -0.00077
C         -4.14944        2.82706       -0.00016
C         -2.94730        2.91436        0.00036
H         -1.89174        2.99102        0.00081
